
OS:Version,
  {cc05613d-707c-4d8e-a493-02fea2c4d3b4}, !- Handle
  3.1.0;                                  !- Version Identifier

OS:Schedule:Constant,
  {c13a4eaf-2731-4caf-9bb2-d5db796634a1}, !- Handle
  Always On Discrete,                     !- Name
  {fc979fe2-e9be-4f70-a956-d2c907fed3ec}, !- Schedule Type Limits Name
  1;                                      !- Value

OS:ScheduleTypeLimits,
  {fc979fe2-e9be-4f70-a956-d2c907fed3ec}, !- Handle
  Always On Discrete Limits,              !- Name
  0,                                      !- Lower Limit Value
  1,                                      !- Upper Limit Value
  Discrete,                               !- Numeric Type
  Availability;                           !- Unit Type

OS:Site,
  {f981f642-f645-4184-90ea-54ecb81181a3}, !- Handle
  Chicago Ohare Intl Ap_IL_USA,           !- Name
  41.98,                                  !- Latitude {deg}
  -87.92,                                 !- Longitude {deg}
  -6,                                     !- Time Zone {hr}
  201,                                    !- Elevation {m}
  City;                                   !- Terrain

OS:YearDescription,
  {286d52b4-ac67-4922-b45b-e99be1b2fa25}; !- Handle

OS:ClimateZones,
  {ed807fb1-d8cc-4fe4-81f9-ecc4a3e663b3}, !- Handle
  ASHRAE,                                 !- Climate Zone Institution Name 1
  ANSI/ASHRAE Standard 169,               !- Climate Zone Document Name 1
  2006,                                   !- Climate Zone Document Year 1
  5A;                                     !- Climate Zone Value 1

OS:Facility,
  {5874d766-9013-445a-b7ba-fbc18548d936}; !- Handle

OS:SimulationControl,
  {58c08c90-257a-4c48-bac8-bc48284aa3da}, !- Handle
  ,                                       !- Do Zone Sizing Calculation
  ,                                       !- Do System Sizing Calculation
  ,                                       !- Do Plant Sizing Calculation
  Yes,                                    !- Run Simulation for Sizing Periods
  No,                                     !- Run Simulation for Weather File Run Periods
  ,                                       !- Loads Convergence Tolerance Value {W}
  ,                                       !- Temperature Convergence Tolerance Value {deltaC}
  ,                                       !- Solar Distribution
  ,                                       !- Maximum Number of Warmup Days
  ,                                       !- Minimum Number of Warmup Days
  Yes,                                    !- Do HVAC Sizing Simulation for Sizing Periods
  1;                                      !- Maximum Number of HVAC Sizing Simulation Passes

OS:Sizing:Parameters,
  {b7f8e5e5-194f-46fb-b696-bf8dbd94d2a1}, !- Handle
  1.25,                                   !- Heating Sizing Factor
  1.15;                                   !- Cooling Sizing Factor

OS:Timestep,
  {7d9cdc89-f88b-48bc-a911-5c24839f5e0f}, !- Handle
  4;                                      !- Number of Timesteps per Hour

OS:ShadowCalculation,
  {4b4398c9-7698-4d5a-8651-280bd02def9b}, !- Handle
  PolygonClipping,                        !- Shading Calculation Method
  ,                                       !- Shading Calculation Update Frequency Method
  20,                                     !- Shading Calculation Update Frequency
  15000,                                  !- Maximum Figures in Shadow Overlap Calculations
  ,                                       !- Polygon Clipping Algorithm
  512,                                    !- Pixel Counting Resolution
  ,                                       !- Sky Diffuse Modeling Algorithm
  No,                                     !- Output External Shading Calculation Results
  No,                                     !- Disable Self-Shading Within Shading Zone Groups
  No;                                     !- Disable Self-Shading From Shading Zone Groups to Other Zones

OS:HeatBalanceAlgorithm,
  {f1ec6801-7d3f-453f-82f7-4587187226a7}, !- Handle
  ConductionTransferFunction,             !- Algorithm
  200;                                    !- Surface Temperature Upper Limit {C}

OS:RunPeriod,
  {61a69a03-a8f4-4d0f-85db-6c628a82e2d2}, !- Handle
  Run Period 1,                           !- Name
  1,                                      !- Begin Month
  1,                                      !- Begin Day of Month
  12,                                     !- End Month
  31,                                     !- End Day of Month
  ,                                       !- Use Weather File Holidays and Special Days
  ,                                       !- Use Weather File Daylight Saving Period
  ,                                       !- Apply Weekend Holiday Rule
  ,                                       !- Use Weather File Rain Indicators
  ,                                       !- Use Weather File Snow Indicators
  ;                                       !- Number of Times Runperiod to be Repeated

OS:LifeCycleCost:Parameters,
  {4156312f-45ac-41e1-8bda-ebb07868e9db}, !- Handle
  ,                                       !- Analysis Type
  ,                                       !- Discounting Convention
  ,                                       !- Inflation Approach
  ,                                       !- Real Discount Rate
  ,                                       !- Nominal Discount Rate
  ,                                       !- Inflation
  ,                                       !- Base Date Month
  ,                                       !- Base Date Year
  ,                                       !- Service Date Month
  ,                                       !- Service Date Year
  ;                                       !- Length of Study Period in Years

OS:RadianceParameters,
  {8262416c-3366-49be-b850-c8bf2a2e2f67}, !- Handle
  1,                                      !- Accumulated Rays per Record
  0,                                      !- Direct Threshold
  1,                                      !- Direct Certainty
  1,                                      !- Direct Jitter
  1,                                      !- Direct Pretest
  6,                                      !- Ambient Bounces VMX
  2,                                      !- Ambient Bounces DMX
  4050,                                   !- Ambient Divisions VMX
  512,                                    !- Ambient Divisions DMX
  256,                                    !- Ambient Supersamples
  0.001,                                  !- Limit Weight VMX
  0.001,                                  !- Limit Weight DMX
  500,                                    !- Klems Sampling Density
  146;                                    !- Sky Discretization Resolution

OS:ProgramControl,
  {6d15cd07-035c-45d0-a623-671450c718a3}; !- Handle

OS:OutputControl:ReportingTolerances,
  {91c73e89-784b-4867-bb28-b609a56b8e48}, !- Handle
  1,                                      !- Tolerance for Time Heating Setpoint Not Met {deltaC}
  1;                                      !- Tolerance for Time Cooling Setpoint Not Met {deltaC}

OS:ConvergenceLimits,
  {cb6bfab2-74c1-4485-b99c-995538d2528f}, !- Handle
  1;                                      !- Minimum System Timestep {minutes}

OS:SurfaceConvectionAlgorithm:Inside,
  {11ad18dd-d471-48ef-88d9-46efb5216de6}, !- Handle
  TARP;                                   !- Algorithm

OS:SurfaceConvectionAlgorithm:Outside,
  {0c1f02f4-28af-46a7-ac53-41fe3fc66141}, !- Handle
  DOE-2;                                  !- Algorithm

OS:ZoneAirHeatBalanceAlgorithm,
  {fa5733e2-b532-4919-a72b-426a91d73b12}, !- Handle
  ThirdOrderBackwardDifference;           !- Algorithm

OS:ZoneAirContaminantBalance,
  {51670a9b-9ae9-42fe-8f9f-02eb7c714cb1}; !- Handle

OS:ZoneCapacitanceMultiplier:ResearchSpecial,
  {c4dc60a1-e8fc-4026-b715-51487c3784e6}, !- Handle
  ,                                       !- Temperature Capacity Multiplier
  ,                                       !- Humidity Capacity Multiplier
  ;                                       !- Carbon Dioxide Capacity Multiplier

OS:WeatherFile,
  {c442bfa6-57e1-489d-afc6-5be4b6cb3e2b}, !- Handle
  Chicago Ohare Intl Ap,                  !- City
  IL,                                     !- State Province Region
  USA,                                    !- Country
  TMY3,                                   !- Data Source
  725300,                                 !- WMO Number
  41.98,                                  !- Latitude {deg}
  -87.92,                                 !- Longitude {deg}
  -6,                                     !- Time Zone {hr}
  201,                                    !- Elevation {m}
  /Users/dgoldwas/Documents/GitHub/Personal/osw2osa/weather/USA_IL_Chicago-OHare.Intl.AP.725300_TMY3.epw, !- Url
  ;                                       !- Checksum

OS:Site:WaterMainsTemperature,
  {2c8f7e9f-f608-4024-83b8-d7caab9c38a9}, !- Handle
  Correlation,                            !- Calculation Method
  ,                                       !- Temperature Schedule Name
  9.925,                                  !- Annual Average Outdoor Air Temperature {C}
  28.7;                                   !- Maximum Difference In Monthly Average Outdoor Air Temperatures {deltaC}

OS:SizingPeriod:DesignDay,
  {44555f22-3efc-474c-9d04-9f711d16a3fe}, !- Handle
  Chicago Ohare Intl Ap Ann Clg .4% Condns DB=>MWB 1, !- Name
  33.3,                                   !- Maximum Dry-Bulb Temperature {C}
  10.5,                                   !- Daily Dry-Bulb Temperature Range {deltaC}
  23.7,                                   !- Humidity Indicating Conditions at Maximum Dry-Bulb
  98934,                                  !- Barometric Pressure {Pa}
  5.2,                                    !- Wind Speed {m/s}
  230,                                    !- Wind Direction {deg}
  0,                                      !- Sky Clearness
  0,                                      !- Rain Indicator
  0,                                      !- Snow Indicator
  21,                                     !- Day of Month
  7,                                      !- Month
  SummerDesignDay,                        !- Day Type
  0,                                      !- Daylight Saving Time Indicator
  Wetbulb,                                !- Humidity Indicating Type
  ,                                       !- Humidity Indicating Day Schedule Name
  DefaultMultipliers,                     !- Dry-Bulb Temperature Range Modifier Type
  ,                                       !- Dry-Bulb Temperature Range Modifier Schedule Name
  ASHRAETau,                              !- Solar Model Indicator
  ,                                       !- Beam Solar Day Schedule Name
  ,                                       !- Diffuse Solar Day Schedule Name
  0.455,                                  !- ASHRAE Taub {dimensionless}
  2.05;                                   !- ASHRAE Taud {dimensionless}

OS:SizingPeriod:DesignDay,
  {464fbd1f-42dc-4622-adfd-bca5f074448e}, !- Handle
  Chicago Ohare Intl Ap Ann Clg .4% Condns WB=>MDB 1, !- Name
  31.2,                                   !- Maximum Dry-Bulb Temperature {C}
  10.5,                                   !- Daily Dry-Bulb Temperature Range {deltaC}
  25.5,                                   !- Humidity Indicating Conditions at Maximum Dry-Bulb
  98934,                                  !- Barometric Pressure {Pa}
  5.2,                                    !- Wind Speed {m/s}
  230,                                    !- Wind Direction {deg}
  0,                                      !- Sky Clearness
  0,                                      !- Rain Indicator
  0,                                      !- Snow Indicator
  21,                                     !- Day of Month
  7,                                      !- Month
  SummerDesignDay,                        !- Day Type
  0,                                      !- Daylight Saving Time Indicator
  Wetbulb,                                !- Humidity Indicating Type
  ,                                       !- Humidity Indicating Day Schedule Name
  DefaultMultipliers,                     !- Dry-Bulb Temperature Range Modifier Type
  ,                                       !- Dry-Bulb Temperature Range Modifier Schedule Name
  ASHRAETau,                              !- Solar Model Indicator
  ,                                       !- Beam Solar Day Schedule Name
  ,                                       !- Diffuse Solar Day Schedule Name
  0.455,                                  !- ASHRAE Taub {dimensionless}
  2.05;                                   !- ASHRAE Taud {dimensionless}

OS:SizingPeriod:DesignDay,
  {08bdf8a4-aeda-4379-a1fd-7c75700080ea}, !- Handle
  Chicago Ohare Intl Ap Ann Htg 99.6% Condns DB 1, !- Name
  -20,                                    !- Maximum Dry-Bulb Temperature {C}
  0,                                      !- Daily Dry-Bulb Temperature Range {deltaC}
  -20,                                    !- Humidity Indicating Conditions at Maximum Dry-Bulb
  98934,                                  !- Barometric Pressure {Pa}
  4.9,                                    !- Wind Speed {m/s}
  270,                                    !- Wind Direction {deg}
  0,                                      !- Sky Clearness
  0,                                      !- Rain Indicator
  0,                                      !- Snow Indicator
  21,                                     !- Day of Month
  1,                                      !- Month
  WinterDesignDay,                        !- Day Type
  0,                                      !- Daylight Saving Time Indicator
  Wetbulb,                                !- Humidity Indicating Type
  ,                                       !- Humidity Indicating Day Schedule Name
  DefaultMultipliers,                     !- Dry-Bulb Temperature Range Modifier Type
  ,                                       !- Dry-Bulb Temperature Range Modifier Schedule Name
  ASHRAEClearSky;                         !- Solar Model Indicator

OS:Building,
  {f4d5b273-839a-4171-8cf5-efb2f217fa0a}, !- Handle
  90.1-2004|MediumOffice,                 !- Name
  ,                                       !- Building Sector Type
  ,                                       !- North Axis {deg}
  ,                                       !- Nominal Floor to Floor Height {m}
  ,                                       !- Space Type Name
  {0c167e17-8174-46d1-9c71-5800df4643b6}, !- Default Construction Set Name
  ,                                       !- Default Schedule Set Name
  ,                                       !- Standards Number of Stories
  ,                                       !- Standards Number of Above Ground Stories
  ,                                       !- Standards Template
  Office;                                 !- Standards Building Type

OS:SpaceType,
  {9e04a7cb-82d7-4686-8ee5-f35da57b0013}, !- Handle
  Office WholeBuilding - Md Office - 90.1-2004, !- Name
  ,                                       !- Default Construction Set Name
  {8f642cce-3666-46db-be00-0d91b2e7d2c6}, !- Default Schedule Set Name
  {8e124c86-9f57-4a56-ae12-29f9d4a02fa6}, !- Group Rendering Name
  {04d17966-e624-4828-b9b2-d492e0bb4f31}, !- Design Specification Outdoor Air Object Name
  ,                                       !- Standards Template
  Office,                                 !- Standards Building Type
  WholeBuilding - Md Office;              !- Standards Space Type

OS:Rendering:Color,
  {8e124c86-9f57-4a56-ae12-29f9d4a02fa6}, !- Handle
  Office WholeBuilding - Md Office,       !- Name
  120,                                    !- Rendering Red Value
  230,                                    !- Rendering Green Value
  199;                                    !- Rendering Blue Value

OS:BuildingStory,
  {421aba40-a18d-4320-b8d9-354ae54ed808}, !- Handle
  Story B1,                               !- Name
  -3.9624,                                !- Nominal Z Coordinate {m}
  3.9624,                                 !- Nominal Floor to Floor Height {m}
  ,                                       !- Default Construction Set Name
  ,                                       !- Default Schedule Set Name
  ;                                       !- Group Rendering Name

OS:Space,
  {5a287f46-5209-4573-ba43-3b55070caf28}, !- Handle
  Office WholeBuilding - Md Office  - Story B1, !- Name
  {9e04a7cb-82d7-4686-8ee5-f35da57b0013}, !- Space Type Name
  ,                                       !- Default Construction Set Name
  ,                                       !- Default Schedule Set Name
  -0,                                     !- Direction of Relative North {deg}
  -24.9823294657019,                      !- X Origin {m}
  -4.83563701425784,                      !- Y Origin {m}
  -3.9624,                                !- Z Origin {m}
  {421aba40-a18d-4320-b8d9-354ae54ed808}, !- Building Story Name
  {072dec9a-d5b8-47fb-a0cd-5cc1b01774df}; !- Thermal Zone Name

OS:Surface,
  {ec0a11de-464d-4cb0-bd25-2f06f4dc4a38}, !- Handle
  Surface 1,                              !- Name
  Floor,                                  !- Surface Type
  ,                                       !- Construction Name
  {5a287f46-5209-4573-ba43-3b55070caf28}, !- Space Name
  Ground,                                 !- Outside Boundary Condition
  ,                                       !- Outside Boundary Condition Object
  NoSun,                                  !- Sun Exposure
  NoWind,                                 !- Wind Exposure
  ,                                       !- View Factor to Ground
  ,                                       !- Number of Vertices
  -3.5527136788005e-14, -5.32907051820075e-15, 0, !- X,Y,Z Vertex 1 {m}
  -3.5527136788005e-14, 9.67127402851568, 0, !- X,Y,Z Vertex 2 {m}
  49.9646589314038, 9.67127402851568, 0,  !- X,Y,Z Vertex 3 {m}
  49.9646589314038, -5.32907051820075e-15, 0; !- X,Y,Z Vertex 4 {m}

OS:Surface,
  {2e000fb0-d90e-4ff3-9b58-99193c2279cb}, !- Handle
  Surface 2,                              !- Name
  Wall,                                   !- Surface Type
  ,                                       !- Construction Name
  {5a287f46-5209-4573-ba43-3b55070caf28}, !- Space Name
  Ground,                                 !- Outside Boundary Condition
  ,                                       !- Outside Boundary Condition Object
  NoSun,                                  !- Sun Exposure
  NoWind,                                 !- Wind Exposure
  ,                                       !- View Factor to Ground
  ,                                       !- Number of Vertices
  -3.5527136788005e-14, 9.67127402851568, 3.9624, !- X,Y,Z Vertex 1 {m}
  -3.5527136788005e-14, 9.67127402851568, 0, !- X,Y,Z Vertex 2 {m}
  -3.5527136788005e-14, -5.32907051820075e-15, 0, !- X,Y,Z Vertex 3 {m}
  -3.5527136788005e-14, -5.32907051820075e-15, 3.9624; !- X,Y,Z Vertex 4 {m}

OS:Surface,
  {45df1cbe-9416-4170-b608-399849fd3248}, !- Handle
  Surface 3,                              !- Name
  Wall,                                   !- Surface Type
  ,                                       !- Construction Name
  {5a287f46-5209-4573-ba43-3b55070caf28}, !- Space Name
  Ground,                                 !- Outside Boundary Condition
  ,                                       !- Outside Boundary Condition Object
  NoSun,                                  !- Sun Exposure
  NoWind,                                 !- Wind Exposure
  ,                                       !- View Factor to Ground
  ,                                       !- Number of Vertices
  49.9646589314038, 9.67127402851568, 3.9624, !- X,Y,Z Vertex 1 {m}
  49.9646589314038, 9.67127402851568, 0,  !- X,Y,Z Vertex 2 {m}
  -3.5527136788005e-14, 9.67127402851568, 0, !- X,Y,Z Vertex 3 {m}
  -3.5527136788005e-14, 9.67127402851568, 3.9624; !- X,Y,Z Vertex 4 {m}

OS:Surface,
  {d5a482b5-ac31-4105-8407-1c145316e01f}, !- Handle
  Surface 4,                              !- Name
  Wall,                                   !- Surface Type
  ,                                       !- Construction Name
  {5a287f46-5209-4573-ba43-3b55070caf28}, !- Space Name
  Ground,                                 !- Outside Boundary Condition
  ,                                       !- Outside Boundary Condition Object
  NoSun,                                  !- Sun Exposure
  NoWind,                                 !- Wind Exposure
  ,                                       !- View Factor to Ground
  ,                                       !- Number of Vertices
  49.9646589314038, -5.32907051820075e-15, 3.9624, !- X,Y,Z Vertex 1 {m}
  49.9646589314038, -5.32907051820075e-15, 0, !- X,Y,Z Vertex 2 {m}
  49.9646589314038, 9.67127402851568, 0,  !- X,Y,Z Vertex 3 {m}
  49.9646589314038, 9.67127402851568, 3.9624; !- X,Y,Z Vertex 4 {m}

OS:Surface,
  {569c0ef9-3112-4e0a-a180-ae1fc04ca3af}, !- Handle
  Surface 5,                              !- Name
  Wall,                                   !- Surface Type
  ,                                       !- Construction Name
  {5a287f46-5209-4573-ba43-3b55070caf28}, !- Space Name
  Ground,                                 !- Outside Boundary Condition
  ,                                       !- Outside Boundary Condition Object
  NoSun,                                  !- Sun Exposure
  NoWind,                                 !- Wind Exposure
  ,                                       !- View Factor to Ground
  ,                                       !- Number of Vertices
  -3.5527136788005e-14, -5.32907051820075e-15, 3.9624, !- X,Y,Z Vertex 1 {m}
  -3.5527136788005e-14, -5.32907051820075e-15, 0, !- X,Y,Z Vertex 2 {m}
  49.9646589314038, -5.32907051820075e-15, 0, !- X,Y,Z Vertex 3 {m}
  49.9646589314038, -5.32907051820075e-15, 3.9624; !- X,Y,Z Vertex 4 {m}

OS:Surface,
  {4001033e-1adc-42b8-856b-c4639e9ec275}, !- Handle
  Surface 6,                              !- Name
  RoofCeiling,                            !- Surface Type
  {0f77ded2-bf7e-4592-85bd-d91e604146b0}, !- Construction Name
  {5a287f46-5209-4573-ba43-3b55070caf28}, !- Space Name
  Adiabatic,                              !- Outside Boundary Condition
  ,                                       !- Outside Boundary Condition Object
  NoSun,                                  !- Sun Exposure
  NoWind,                                 !- Wind Exposure
  ,                                       !- View Factor to Ground
  ,                                       !- Number of Vertices
  49.9646589314038, -5.32907051820075e-15, 3.9624, !- X,Y,Z Vertex 1 {m}
  49.9646589314038, 9.67127402851568, 3.9624, !- X,Y,Z Vertex 2 {m}
  -3.5527136788005e-14, 9.67127402851568, 3.9624, !- X,Y,Z Vertex 3 {m}
  -3.5527136788005e-14, -5.32907051820075e-15, 3.9624; !- X,Y,Z Vertex 4 {m}

OS:ThermalZone,
  {072dec9a-d5b8-47fb-a0cd-5cc1b01774df}, !- Handle
  Zone Office WholeBuilding - Md Office  - Story B1, !- Name
  1,                                      !- Multiplier
  ,                                       !- Ceiling Height {m}
  ,                                       !- Volume {m3}
  ,                                       !- Floor Area {m2}
  ,                                       !- Zone Inside Convection Algorithm
  ,                                       !- Zone Outside Convection Algorithm
  ,                                       !- Zone Conditioning Equipment List Name
  {3def529e-ab43-48fe-8db4-13ae21d7a2f1}, !- Zone Air Inlet Port List
  {c96371c8-d2e3-45e4-a4d2-31c71fcdf03d}, !- Zone Air Exhaust Port List
  {18ed61a7-2254-4675-abcc-89e36cd33b54}, !- Zone Air Node Name
  {779ccbaf-1825-4ebb-92c4-49d132f50032}, !- Zone Return Air Port List
  ,                                       !- Primary Daylighting Control Name
  ,                                       !- Fraction of Zone Controlled by Primary Daylighting Control
  ,                                       !- Secondary Daylighting Control Name
  ,                                       !- Fraction of Zone Controlled by Secondary Daylighting Control
  ,                                       !- Illuminance Map Name
  ,                                       !- Group Rendering Name
  {7fd7e550-49b8-4e58-a0ab-ab9cf2e19456}, !- Thermostat Name
  No;                                     !- Use Ideal Air Loads

OS:Node,
  {5c1031b5-8ed6-48e9-8273-95f00ec87879}, !- Handle
  Zone Office WholeBuilding - Md Office  - Story B1 Zone Air Node, !- Name
  {18ed61a7-2254-4675-abcc-89e36cd33b54}, !- Inlet Port
  ;                                       !- Outlet Port

OS:Connection,
  {18ed61a7-2254-4675-abcc-89e36cd33b54}, !- Handle
  {d9d253d3-8de4-4c38-9151-75a202e7f6d2}, !- Name
  {072dec9a-d5b8-47fb-a0cd-5cc1b01774df}, !- Source Object
  11,                                     !- Outlet Port
  {5c1031b5-8ed6-48e9-8273-95f00ec87879}, !- Target Object
  2;                                      !- Inlet Port

OS:PortList,
  {3def529e-ab43-48fe-8db4-13ae21d7a2f1}, !- Handle
  {e95e66cc-b91a-43c0-97ef-24d452110fa2}, !- Name
  {072dec9a-d5b8-47fb-a0cd-5cc1b01774df}, !- HVAC Component
  {f4955e4a-1024-42c5-a929-3a81634054d3}; !- Port 1

OS:PortList,
  {c96371c8-d2e3-45e4-a4d2-31c71fcdf03d}, !- Handle
  {51d0e96c-043b-40fb-89e2-faa02147911a}, !- Name
  {072dec9a-d5b8-47fb-a0cd-5cc1b01774df}; !- HVAC Component

OS:PortList,
  {779ccbaf-1825-4ebb-92c4-49d132f50032}, !- Handle
  {76cd291b-bd1a-40d0-b3ba-fa732f5688f0}, !- Name
  {072dec9a-d5b8-47fb-a0cd-5cc1b01774df}, !- HVAC Component
  {22fc4405-5970-4118-9431-d0087487501e}; !- Port 1

OS:Sizing:Zone,
  {f5c312e0-ab1d-4f4f-a9c1-6010d06f23e0}, !- Handle
  {072dec9a-d5b8-47fb-a0cd-5cc1b01774df}, !- Zone or ZoneList Name
  SupplyAirTemperature,                   !- Zone Cooling Design Supply Air Temperature Input Method
  12.7777777777778,                       !- Zone Cooling Design Supply Air Temperature {C}
  11.11,                                  !- Zone Cooling Design Supply Air Temperature Difference {deltaC}
  SupplyAirTemperature,                   !- Zone Heating Design Supply Air Temperature Input Method
  50.0000000000001,                       !- Zone Heating Design Supply Air Temperature {C}
  11.11,                                  !- Zone Heating Design Supply Air Temperature Difference {deltaC}
  0.0085,                                 !- Zone Cooling Design Supply Air Humidity Ratio {kg-H2O/kg-air}
  0.008,                                  !- Zone Heating Design Supply Air Humidity Ratio {kg-H2O/kg-air}
  ,                                       !- Zone Heating Sizing Factor
  ,                                       !- Zone Cooling Sizing Factor
  DesignDay,                              !- Cooling Design Air Flow Method
  ,                                       !- Cooling Design Air Flow Rate {m3/s}
  ,                                       !- Cooling Minimum Air Flow per Zone Floor Area {m3/s-m2}
  ,                                       !- Cooling Minimum Air Flow {m3/s}
  ,                                       !- Cooling Minimum Air Flow Fraction
  DesignDay,                              !- Heating Design Air Flow Method
  ,                                       !- Heating Design Air Flow Rate {m3/s}
  ,                                       !- Heating Maximum Air Flow per Zone Floor Area {m3/s-m2}
  ,                                       !- Heating Maximum Air Flow {m3/s}
  ,                                       !- Heating Maximum Air Flow Fraction
  No,                                     !- Account for Dedicated Outdoor Air System
  NeutralSupplyAir,                       !- Dedicated Outdoor Air System Control Strategy
  autosize,                               !- Dedicated Outdoor Air Low Setpoint Temperature for Design {C}
  autosize;                               !- Dedicated Outdoor Air High Setpoint Temperature for Design {C}

OS:ZoneHVAC:EquipmentList,
  {cade1e9c-7489-4419-9bea-dbdc6bc7be31}, !- Handle
  Zone Office WholeBuilding - Md Office  - Story B1 Zone HVAC Equipment List, !- Name
  {072dec9a-d5b8-47fb-a0cd-5cc1b01774df}, !- Thermal Zone
  ,                                       !- Load Distribution Scheme
  {10cb2efe-bdde-41b9-bee6-359fc76f96b0}, !- Zone Equipment 1
  1,                                      !- Zone Equipment Cooling Sequence 1
  1,                                      !- Zone Equipment Heating or No-Load Sequence 1
  ,                                       !- Zone Equipment Sequential Cooling Fraction Schedule Name 1
  ;                                       !- Zone Equipment Sequential Heating Fraction Schedule Name 1

OS:BuildingStory,
  {d5e6bd58-1aef-4efe-b0f9-8f2a27a3344f}, !- Handle
  Story Ground,                           !- Name
  0,                                      !- Nominal Z Coordinate {m}
  3.9624,                                 !- Nominal Floor to Floor Height {m}
  ,                                       !- Default Construction Set Name
  ,                                       !- Default Schedule Set Name
  ;                                       !- Group Rendering Name

OS:Space,
  {0cf31490-a126-4791-8d4d-c3362584e1c2}, !- Handle
  Office WholeBuilding - Md Office  - Story Ground, !- Name
  {9e04a7cb-82d7-4686-8ee5-f35da57b0013}, !- Space Type Name
  ,                                       !- Default Construction Set Name
  ,                                       !- Default Schedule Set Name
  -0,                                     !- Direction of Relative North {deg}
  -24.9823294657019,                      !- X Origin {m}
  -4.83563701425784,                      !- Y Origin {m}
  0,                                      !- Z Origin {m}
  {d5e6bd58-1aef-4efe-b0f9-8f2a27a3344f}, !- Building Story Name
  {cad9c1b1-9f4a-4bd4-a9a2-fc11d3e42d88}; !- Thermal Zone Name

OS:Surface,